
OS:Version,
  {940f3c1c-d5e7-4950-8da3-b4cde463ea71}, !- Handle
  3.10.0;                                 !- Version Identifier

OS:Output:Table:SummaryReports,
  {05551322-66a3-49d5-a84e-a1867a68a04c}, !- Handle
  AllSummary;                             !- Report Name 1

OS:OutputControl:ReportingTolerances,
  {6c5d5cac-908a-4435-97a1-2838e2d155c1}, !- Handle
  1.11,                                   !- Tolerance for Time Heating Setpoint Not Met {deltaC}
  1.11;                                   !- Tolerance for Time Cooling Setpoint Not Met {deltaC}

OS:YearDescription,
  {1767856a-796b-4b4f-8e84-998152cba853}, !- Handle
  ,                                       !- Calendar Year
  Sunday;                                 !- Day of Week for Start Day

OS:RunPeriod,
  {5703d51f-78bd-4af5-94c6-2b51edd1747d}, !- Handle
  Run Period 1,                           !- Name
  1,                                      !- Begin Month
  1,                                      !- Begin Day of Month
  12,                                     !- End Month
  31,                                     !- End Day of Month
  ,                                       !- Use Weather File Holidays and Special Days
  ,                                       !- Use Weather File Daylight Saving Period
  ,                                       !- Apply Weekend Holiday Rule
  ,                                       !- Use Weather File Rain Indicators
  ,                                       !- Use Weather File Snow Indicators
  ;                                       !- Number of Times Runperiod to be Repeated

OS:Sizing:Parameters,
  {249c7463-e89a-4950-8751-65b80b397d48}, !- Handle
  1.25,                                   !- Heating Sizing Factor
  1.15;                                   !- Cooling Sizing Factor

OS:Building,
  {20e0ef55-9eb1-4215-842a-54fc5ec75117}, !- Handle
  Unnamed,                                !- Name
  ,                                       !- Building Sector Type
  0,                                      !- North Axis {deg}
  ,                                       !- Nominal Floor to Floor Height {m}
  ,                                       !- Space Type Name
  {706559d7-80c7-49e1-9406-8e054c68379a}, !- Default Construction Set Name
  ,                                       !- Default Schedule Set Name
  ,                                       !- Standards Number of Stories
  ,                                       !- Standards Number of Above Ground Stories
  ,                                       !- Standards Template
  MediumOffice;                           !- Standards Building Type

OS:SimulationControl,
  {c5138e63-3959-4ff2-a95c-a67e628300d6}, !- Handle
  Yes,                                    !- Do Zone Sizing Calculation
  Yes,                                    !- Do System Sizing Calculation
  Yes,                                    !- Do Plant Sizing Calculation
  No,                                     !- Run Simulation for Sizing Periods
  Yes,                                    !- Run Simulation for Weather File Run Periods
  ,                                       !- Loads Convergence Tolerance Value {W}
  ,                                       !- Temperature Convergence Tolerance Value {deltaC}
  FullExteriorWithReflections;            !- Solar Distribution

OS:ShadowCalculation,
  {0cfa95fd-28c3-4040-96f4-87388f751852}, !- Handle
  PolygonClipping,                        !- Shading Calculation Method
  Periodic,                               !- Shading Calculation Update Frequency Method
  30,                                     !- Shading Calculation Update Frequency
  15000,                                  !- Maximum Figures in Shadow Overlap Calculations
  ,                                       !- Polygon Clipping Algorithm
  512,                                    !- Pixel Counting Resolution
  ,                                       !- Sky Diffuse Modeling Algorithm
  No,                                     !- Output External Shading Calculation Results
  No,                                     !- Disable Self-Shading Within Shading Zone Groups
  No;                                     !- Disable Self-Shading From Shading Zone Groups to Other Zones

OS:Timestep,
  {7cc95218-8c9f-4602-80bc-d90eca5633f5}, !- Handle
  6;                                      !- Number of Timesteps per Hour

OS:Site,
  {c0888259-086a-493a-91c2-13ed1dfc9aa1}, !- Handle
  Site 1,                                 !- Name
  ,                                       !- Latitude {deg}
  ,                                       !- Longitude {deg}
  ,                                       !- Time Zone {hr}
  ,                                       !- Elevation {m}
  City;                                   !- Terrain

OS:Site:WaterMainsTemperature,
  {d1c29b74-45f9-4e7b-8fe5-6a395c613d0b}, !- Handle
  CorrelationFromWeatherFile;             !- Calculation Method

OS:Schedule:Constant,
  {51f77811-6aa2-4165-8e5e-953c8c7c020c}, !- Handle
  Always On Discrete,                     !- Name
  {34e04df7-f818-4859-9983-4c3600b5e180}, !- Schedule Type Limits Name
  1;                                      !- Value

OS:ScheduleTypeLimits,
  {34e04df7-f818-4859-9983-4c3600b5e180}, !- Handle
  OnOff,                                  !- Name
  0,                                      !- Lower Limit Value
  1,                                      !- Upper Limit Value
  Discrete,                               !- Numeric Type
  Availability;                           !- Unit Type

OS:Schedule:Constant,
  {0b60c442-1690-40af-bbae-92728b94e763}, !- Handle
  Always Off Discrete,                    !- Name
  {753e7cd6-7948-4d74-899e-107177a83c43}, !- Schedule Type Limits Name
  0;                                      !- Value

OS:ScheduleTypeLimits,
  {753e7cd6-7948-4d74-899e-107177a83c43}, !- Handle
  {4eaaba33-c5e9-49c9-bd57-ee463ce17b32}, !- Name
  0,                                      !- Lower Limit Value
  1,                                      !- Upper Limit Value
  Discrete,                               !- Numeric Type
  Availability;                           !- Unit Type

OS:Schedule:Constant,
  {0b847005-5690-454b-90da-bf17021c9f10}, !- Handle
  Always On Continuous,                   !- Name
  {7c9b9a91-e62f-4279-9a2a-a6a77e46e78c}, !- Schedule Type Limits Name
  1;                                      !- Value

OS:ScheduleTypeLimits,
  {7c9b9a91-e62f-4279-9a2a-a6a77e46e78c}, !- Handle
  Fractional,                             !- Name
  0,                                      !- Lower Limit Value
  1,                                      !- Upper Limit Value
  Continuous,                             !- Numeric Type
  ;                                       !- Unit Type

OS:ScheduleTypeLimits,
  {2e10528f-473e-4bd3-b105-d8c8dae2bd97}, !- Handle
  {beb50faf-b7e0-4d34-add4-5a3210c2fe12}, !- Name
  0,                                      !- Lower Limit Value
  1,                                      !- Upper Limit Value
  Continuous,                             !- Numeric Type
  Dimensionless;                          !- Unit Type

OS:ScheduleTypeLimits,
  {9c5420d7-49a4-42cb-8da7-2984574864f4}, !- Handle
  Temperature,                            !- Name
  -273.15,                                !- Lower Limit Value
  ,                                       !- Upper Limit Value
  Continuous,                             !- Numeric Type
  Temperature;                            !- Unit Type

OS:ScheduleTypeLimits,
  {d263bd7a-0bde-496d-ab44-faf25eb015b0}, !- Handle
  Activity Level,                         !- Name
  0,                                      !- Lower Limit Value
  ,                                       !- Upper Limit Value
  Continuous,                             !- Numeric Type
  ActivityLevel;                          !- Unit Type

OS:Schedule:Ruleset,
  {dd1e471f-aaad-44fa-b8f7-37d2983f9475}, !- Handle
  College INFIL_SCH_PNNL,                 !- Name
  {7c9b9a91-e62f-4279-9a2a-a6a77e46e78c}, !- Schedule Type Limits Name
  {8d305e13-5cd0-4b8a-800f-84d1442b876e}, !- Default Day Schedule Name
  {da649b98-c9c8-4d0c-8549-2a0c866ea85e}, !- Summer Design Day Schedule Name
  {0cc9d3e4-2f0e-4000-9510-a823420b5233}, !- Winter Design Day Schedule Name
  {0907250f-7918-4159-b248-51ce63c6605c}; !- Holiday Schedule Name

OS:Schedule:Day,
  {8d305e13-5cd0-4b8a-800f-84d1442b876e}, !- Handle
  College INFIL_SCH_PNNL_Default,         !- Name
  {7c9b9a91-e62f-4279-9a2a-a6a77e46e78c}, !- Schedule Type Limits Name
  ,                                       !- Interpolate to Timestep
  24,                                     !- Hour 1
  0,                                      !- Minute 1
  1;                                      !- Value Until Time 1

OS:Schedule:Day,
  {c40b39a7-85db-4c11-a78d-435cb130616a}, !- Handle
  College INFIL_SCH_PNNL_SmrDsn,          !- Name
  {7c9b9a91-e62f-4279-9a2a-a6a77e46e78c}, !- Schedule Type Limits Name
  ,                                       !- Interpolate to Timestep
  6,                                      !- Hour 1
  0,                                      !- Minute 1
  1,                                      !- Value Until Time 1
  21,                                     !- Hour 2
  0,                                      !- Minute 2
  0.25,                                   !- Value Until Time 2
  24,                                     !- Hour 3
  0,                                      !- Minute 3
  1;                                      !- Value Until Time 3

OS:Schedule:Day,
  {b340e5a0-13de-4314-8fd4-4756717b6906}, !- Handle
  College INFIL_SCH_PNNL_WntrDsn,         !- Name
  {7c9b9a91-e62f-4279-9a2a-a6a77e46e78c}, !- Schedule Type Limits Name
  ,                                       !- Interpolate to Timestep
  24,                                     !- Hour 1
  0,                                      !- Minute 1
  1;                                      !- Value Until Time 1

OS:Schedule:Day,
  {a77620d1-edff-4241-8e00-51f37bf7dd00}, !- Handle
  College INFIL_SCH_PNNL_Hol,             !- Name
  {7c9b9a91-e62f-4279-9a2a-a6a77e46e78c}, !- Schedule Type Limits Name
  ,                                       !- Interpolate to Timestep
  24,                                     !- Hour 1
  0,                                      !- Minute 1
  1;                                      !- Value Until Time 1

OS:Schedule:Day,
  {91ec24cb-c8ae-4faf-b654-e81a3b4ad710}, !- Handle
  College INFIL_SCH_PNNL_Sun,             !- Name
  {7c9b9a91-e62f-4279-9a2a-a6a77e46e78c}, !- Schedule Type Limits Name
  ,                                       !- Interpolate to Timestep
  24,                                     !- Hour 1
  0,                                      !- Minute 1
  1;                                      !- Value Until Time 1

OS:Schedule:Day,
  {9ec512a5-a1c9-41d9-a4a1-fafd0e20a7c1}, !- Handle
  College INFIL_SCH_PNNL_Sat,             !- Name
  {7c9b9a91-e62f-4279-9a2a-a6a77e46e78c}, !- Schedule Type Limits Name
  ,                                       !- Interpolate to Timestep
  24,                                     !- Hour 1
  0,                                      !- Minute 1
  1;                                      !- Value Until Time 1

OS:Schedule:Day,
  {4372cf9b-462b-4b2c-84de-63801c3e587c}, !- Handle
  College INFIL_SCH_PNNL_Wkdy,            !- Name
  {7c9b9a91-e62f-4279-9a2a-a6a77e46e78c}, !- Schedule Type Limits Name
  ,                                       !- Interpolate to Timestep
  6,                                      !- Hour 1
  0,                                      !- Minute 1
  1,                                      !- Value Until Time 1
  21,                                     !- Hour 2
  0,                                      !- Minute 2
  0.25,                                   !- Value Until Time 2
  24,                                     !- Hour 3
  0,                                      !- Minute 3
  1;                                      !- Value Until Time 3

OS:Schedule:Day,
  {0907250f-7918-4159-b248-51ce63c6605c}, !- Handle
  {b615cd1c-310e-4b47-b4bf-c908c9e2a36a}, !- Name
  {7c9b9a91-e62f-4279-9a2a-a6a77e46e78c}, !- Schedule Type Limits Name
  ,                                       !- Interpolate to Timestep
  24,                                     !- Hour 1
  0,                                      !- Minute 1
  1;                                      !- Value Until Time 1

OS:Schedule:Day,
  {da649b98-c9c8-4d0c-8549-2a0c866ea85e}, !- Handle
  {42789c93-f969-4ab1-9cfd-088e8e152ece}, !- Name
  {7c9b9a91-e62f-4279-9a2a-a6a77e46e78c}, !- Schedule Type Limits Name
  ,                                       !- Interpolate to Timestep
  6,                                      !- Hour 1
  0,                                      !- Minute 1
  1,                                      !- Value Until Time 1
  21,                                     !- Hour 2
  0,                                      !- Minute 2
  0.25,                                   !- Value Until Time 2
  24,                                     !- Hour 3
  0,                                      !- Minute 3
  1;                                      !- Value Until Time 3

OS:Schedule:Day,
  {0cc9d3e4-2f0e-4000-9510-a823420b5233}, !- Handle
  {0f7354a1-88c6-4977-8f5a-3186b917e183}, !- Name
  {7c9b9a91-e62f-4279-9a2a-a6a77e46e78c}, !- Schedule Type Limits Name
  ,                                       !- Interpolate to Timestep
  24,                                     !- Hour 1
  0,                                      !- Minute 1
  1;                                      !- Value Until Time 1

OS:Schedule:Rule,
  {a5d40639-c076-4d9a-b0cc-2fde63dd146a}, !- Handle
  {ce74e341-8aa7-4424-96ee-fe559d14bfd3}, !- Name
  {dd1e471f-aaad-44fa-b8f7-37d2983f9475}, !- Schedule Ruleset Name
  0,                                      !- Rule Order
  {15e30c52-2787-4981-aec6-8c2151d7035a}, !- Day Schedule Name
  Yes,                                    !- Apply Sunday
  No,                                     !- Apply Monday
  No,                                     !- Apply Tuesday
  No,                                     !- Apply Wednesday
  No,                                     !- Apply Thursday
  No,                                     !- Apply Friday
  No,                                     !- Apply Saturday
  DateRange,                              !- Date Specification Type
  1,                                      !- Start Month
  1,                                      !- Start Day
  12,                                     !- End Month
  31;                                     !- End Day

OS:Schedule:Day,
  {15e30c52-2787-4981-aec6-8c2151d7035a}, !- Handle
  {3a1a6b27-f46f-49fc-9f22-fd9449f082fe}, !- Name
  {7c9b9a91-e62f-4279-9a2a-a6a77e46e78c}, !- Schedule Type Limits Name
  ,                                       !- Interpolate to Timestep
  24,                                     !- Hour 1
  0,                                      !- Minute 1
  1;                                      !- Value Until Time 1

OS:Schedule:Rule,
  {3725d1a0-87f5-4a73-90e8-6846a40f2012}, !- Handle
  {4f31998f-e09d-46a2-84c8-9a0708fcba04}, !- Name
  {dd1e471f-aaad-44fa-b8f7-37d2983f9475}, !- Schedule Ruleset Name
  1,                                      !- Rule Order
  {60b9019d-df55-49dd-bb66-d1244b66eec0}, !- Day Schedule Name
  No,                                     !- Apply Sunday
  No,                                     !- Apply Monday
  No,                                     !- Apply Tuesday
  No,                                     !- Apply Wednesday
  No,                                     !- Apply Thursday
  No,                                     !- Apply Friday
  Yes,                                    !- Apply Saturday
  DateRange,                              !- Date Specification Type
  1,                                      !- Start Month
  1,                                      !- Start Day
  12,                                     !- End Month
  31;                                     !- End Day

OS:Schedule:Day,
  {60b9019d-df55-49dd-bb66-d1244b66eec0}, !- Handle
  {36cf7c5b-20d4-4bc0-871d-a9eb2d734fc9}, !- Name
  {7c9b9a91-e62f-4279-9a2a-a6a77e46e78c}, !- Schedule Type Limits Name
  ,                                       !- Interpolate to Timestep
  24,                                     !- Hour 1
  0,                                      !- Minute 1
  1;                                      !- Value Until Time 1

OS:Schedule:Rule,
  {205dfead-bc80-400b-907e-efd71d13e722}, !- Handle
  {ab800755-3690-4bf7-9734-bf1459a2b848}, !- Name
  {dd1e471f-aaad-44fa-b8f7-37d2983f9475}, !- Schedule Ruleset Name
  2,                                      !- Rule Order
  {490e53a1-6d8a-4503-9ee5-c5dfa8029a9a}, !- Day Schedule Name
  No,                                     !- Apply Sunday
  Yes,                                    !- Apply Monday
  Yes,                                    !- Apply Tuesday
  Yes,                                    !- Apply Wednesday
  Yes,                                    !- Apply Thursday
  Yes,                                    !- Apply Friday
  No,                                     !- Apply Saturday
  DateRange,                              !- Date Specification Type
  1,                                      !- Start Month
  1,                                      !- Start Day
  12,                                     !- End Month
  31;                                     !- End Day

OS:Schedule:Day,
  {490e53a1-6d8a-4503-9ee5-c5dfa8029a9a}, !- Handle
  {ea97b0fe-2784-4ff2-83d9-2cf660cd9952}, !- Name
  {7c9b9a91-e62f-4279-9a2a-a6a77e46e78c}, !- Schedule Type Limits Name
  ,                                       !- Interpolate to Timestep
  6,                                      !- Hour 1
  0,                                      !- Minute 1
  1,                                      !- Value Until Time 1
  21,                                     !- Hour 2
  0,                                      !- Minute 2
  0.25,                                   !- Value Until Time 2
  24,                                     !- Hour 3
  0,                                      !- Minute 3
  1;                                      !- Value Until Time 3

OS:Schedule:Ruleset,
  {107831cd-0167-4676-b6d4-eae30fbbf11f}, !- Handle
  HotelSmall MeetingRoom_Occ_Sch,         !- Name
  {7c9b9a91-e62f-4279-9a2a-a6a77e46e78c}, !- Schedule Type Limits Name
  {23dee957-4698-455f-b21f-a2e9c338ac14}, !- Default Day Schedule Name
  {76e814c6-8025-4c57-89c8-7aa92b799921}, !- Summer Design Day Schedule Name
  {25740f04-5488-4e7c-b5cf-e81a2a1d2ab2}; !- Winter Design Day Schedule Name

OS:Schedule:Day,
  {23dee957-4698-455f-b21f-a2e9c338ac14}, !- Handle
  HotelSmall MeetingRoom_Occ_Sch_Default, !- Name
  {7c9b9a91-e62f-4279-9a2a-a6a77e46e78c}, !- Schedule Type Limits Name
  ,                                       !- Interpolate to Timestep
  7,                                      !- Hour 1
  0,                                      !- Minute 1
  0,                                      !- Value Until Time 1
  8,                                      !- Hour 2
  0,                                      !- Minute 2
  0.05,                                   !- Value Until Time 2
  10,                                     !- Hour 3
  0,                                      !- Minute 3
  0.5,                                    !- Value Until Time 3
  12,                                     !- Hour 4
  0,                                      !- Minute 4
  0.2,                                    !- Value Until Time 4
  13,                                     !- Hour 5
  0,                                      !- Minute 5
  0.05,                                   !- Value Until Time 5
  15,                                     !- Hour 6
  0,                                      !- Minute 6
  0.5,                                    !- Value Until Time 6
  18,                                     !- Hour 7
  0,                                      !- Minute 7
  0.2,                                    !- Value Until Time 7
  20,                                     !- Hour 8
  0,                                      !- Minute 8
  0.05,                                   !- Value Until Time 8
  24,                                     !- Hour 9
  0,                                      !- Minute 9
  0;                                      !- Value Until Time 9

OS:Schedule:Day,
  {bdef0492-3d36-4c5d-87d0-465532d802c2}, !- Handle
  HotelSmall MeetingRoom_Occ_Sch_SmrDsn,  !- Name
  {7c9b9a91-e62f-4279-9a2a-a6a77e46e78c}, !- Schedule Type Limits Name
  ,                                       !- Interpolate to Timestep
  24,                                     !- Hour 1
  0,                                      !- Minute 1
  1;                                      !- Value Until Time 1

OS:Schedule:Day,
  {b89e6ab2-5720-4201-ae51-ea20c78a9536}, !- Handle
  HotelSmall MeetingRoom_Occ_Sch_WntrDsn, !- Name
  {7c9b9a91-e62f-4279-9a2a-a6a77e46e78c}, !- Schedule Type Limits Name
  ,                                       !- Interpolate to Timestep
  24,                                     !- Hour 1
  0,                                      !- Minute 1
  0;                                      !- Value Until Time 1

OS:Schedule:Day,
  {0e09aec9-dd4c-4092-9a8c-3ee585cc778b}, !- Handle
  HotelSmall MeetingRoom_Occ_Sch_Wkdy,    !- Name
  {7c9b9a91-e62f-4279-9a2a-a6a77e46e78c}, !- Schedule Type Limits Name
  ,                                       !- Interpolate to Timestep
  7,                                      !- Hour 1
  0,                                      !- Minute 1
  0,                                      !- Value Until Time 1
  8,                                      !- Hour 2
  0,                                      !- Minute 2
  0.05,                                   !- Value Until Time 2
  10,                                     !- Hour 3
  0,                                      !- Minute 3
  0.5,                                    !- Value Until Time 3
  12,                                     !- Hour 4
  0,                                      !- Minute 4
  0.2,                                    !- Value Until Time 4
  13,                                     !- Hour 5
  0,                                      !- Minute 5
  0.05,                                   !- Value Until Time 5
  15,                                     !- Hour 6
  0,                                      !- Minute 6
  0.5,                                    !- Value Until Time 6
  18,                                     !- Hour 7
  0,                                      !- Minute 7
  0.2,                                    !- Value Until Time 7
  20,                                     !- Hour 8
  0,                                      !- Minute 8
  0.05,                                   !- Value Until Time 8
  24,                                     !- Hour 9
  0,                                      !- Minute 9
  0;                                      !- Value Until Time 9

OS:Schedule:Day,
  {76e814c6-8025-4c57-89c8-7aa92b799921}, !- Handle
  {c9707869-829b-4096-9239-8d4ade90f520}, !- Name
  {7c9b9a91-e62f-4279-9a2a-a6a77e46e78c}, !- Schedule Type Limits Name
  ,                                       !- Interpolate to Timestep
  24,                                     !- Hour 1
  0,                                      !- Minute 1
  1;                                      !- Value Until Time 1

OS:Schedule:Day,
  {25740f04-5488-4e7c-b5cf-e81a2a1d2ab2}, !- Handle
  {50f41cf7-9483-427e-956c-9bbd9e791da2}, !- Name
  {7c9b9a91-e62f-4279-9a2a-a6a77e46e78c}, !- Schedule Type Limits Name
  ,                                       !- Interpolate to Timestep
  24,                                     !- Hour 1
  0,                                      !- Minute 1
  0;                                      !- Value Until Time 1

OS:Schedule:Rule,
  {b99fb25c-d70c-47a2-881a-781b449a56bd}, !- Handle
  {17dcdb49-cc72-460d-ace2-2eeeed36d282}, !- Name
  {107831cd-0167-4676-b6d4-eae30fbbf11f}, !- Schedule Ruleset Name
  0,                                      !- Rule Order
  {6290f10d-2ee3-4777-b172-f1a0f9f5714a}, !- Day Schedule Name
  No,                                     !- Apply Sunday
  Yes,                                    !- Apply Monday
  Yes,                                    !- Apply Tuesday
  Yes,                                    !- Apply Wednesday
  Yes,                                    !- Apply Thursday
  Yes,                                    !- Apply Friday
  No,                                     !- Apply Saturday
  DateRange,                              !- Date Specification Type
  1,                                      !- Start Month
  1,                                      !- Start Day
  12,                                     !- End Month
  31;                                     !- End Day

OS:Schedule:Day,
  {6290f10d-2ee3-4777-b172-f1a0f9f5714a}, !- Handle
  {5a6e38fe-18c5-4ecf-b18f-61b2200711cf}, !- Name
  {7c9b9a91-e62f-4279-9a2a-a6a77e46e78c}, !- Schedule Type Limits Name
  ,                                       !- Interpolate to Timestep
  7,                                      !- Hour 1
  0,                                      !- Minute 1
  0,                                      !- Value Until Time 1
  8,                                      !- Hour 2
  0,                                      !- Minute 2
  0.05,                                   !- Value Until Time 2
  10,                                     !- Hour 3
  0,                                      !- Minute 3
  0.5,                                    !- Value Until Time 3
  12,                                     !- Hour 4
  0,                                      !- Minute 4
  0.2,                                    !- Value Until Time 4
  13,                                     !- Hour 5
  0,                                      !- Minute 5
  0.05,                                   !- Value Until Time 5
  15,                                     !- Hour 6
  0,                                      !- Minute 6
  0.5,                                    !- Value Until Time 6
  18,                                     !- Hour 7
  0,                                      !- Minute 7
  0.2,                                    !- Value Until Time 7
  20,                                     !- Hour 8
  0,                                      !- Minute 8
  0.05,                                   !- Value Until Time 8
  24,                                     !- Hour 9
  0,                                      !- Minute 9
  0;                                      !- Value Until Time 9

OS:Schedule:Ruleset,
  {2242971d-69b1-46f1-9692-db7166352dfe}, !- Handle
  College CLGSETP_SCH,                    !- Name
  {9c5420d7-49a4-42cb-8da7-2984574864f4}, !- Schedule Type Limits Name
  {81466994-5ebe-414b-a435-e2653f45db69}, !- Default Day Schedule Name
  {cca4756e-9674-4f09-bfd4-b04579d483d2}, !- Summer Design Day Schedule Name
  {3786ad43-7ab8-4ab0-b4da-6e823dc69554}, !- Winter Design Day Schedule Name
  {dcd743ce-fe93-4b98-b0ca-a372b2084da9}; !- Holiday Schedule Name

OS:Schedule:Day,
  {81466994-5ebe-414b-a435-e2653f45db69}, !- Handle
  College CLGSETP_SCH_Default,            !- Name
  {9c5420d7-49a4-42cb-8da7-2984574864f4}, !- Schedule Type Limits Name
  ,                                       !- Interpolate to Timestep
  18,                                     !- Hour 1
  0,                                      !- Minute 1
  29.44444444,                            !- Value Until Time 1
  24,                                     !- Hour 2
  0,                                      !- Minute 2
  29.4444444400001;                       !- Value Until Time 2

OS:Schedule:Day,
  {80c0173c-2fc7-495c-a20a-08b30568a75c}, !- Handle
  College CLGSETP_SCH_SmrDsn,             !- Name
  {9c5420d7-49a4-42cb-8da7-2984574864f4}, !- Schedule Type Limits Name
  ,                                       !- Interpolate to Timestep
  24,                                     !- Hour 1
  0,                                      !- Minute 1
  23.88888889;                            !- Value Until Time 1

OS:Schedule:Day,
  {d52a01ee-5736-49c2-b095-19933d7a0cd4}, !- Handle
  College CLGSETP_SCH_WntrDsn,            !- Name
  {9c5420d7-49a4-42cb-8da7-2984574864f4}, !- Schedule Type Limits Name
  ,                                       !- Interpolate to Timestep
  18,                                     !- Hour 1
  0,                                      !- Minute 1
  29.44444444,                            !- Value Until Time 1
  24,                                     !- Hour 2
  0,                                      !- Minute 2
  29.4444444400001;                       !- Value Until Time 2

OS:Schedule:Day,
  {f06ce72a-4bd3-4ca3-ae89-322e7a15faf2}, !- Handle
  College CLGSETP_SCH_Hol,                !- Name
  {9c5420d7-49a4-42cb-8da7-2984574864f4}, !- Schedule Type Limits Name
  ,                                       !- Interpolate to Timestep
  18,                                     !- Hour 1
  0,                                      !- Minute 1
  29.44444444,                            !- Value Until Time 1
  24,                                     !- Hour 2
  0,                                      !- Minute 2
  29.4444444400001;                       !- Value Until Time 2

OS:Schedule:Day,
  {b40fe8f2-b52d-41ca-9472-1a7e76b72d5f}, !- Handle
  College CLGSETP_SCH_Wknd,               !- Name
  {9c5420d7-49a4-42cb-8da7-2984574864f4}, !- Schedule Type Limits Name
  ,                                       !- Interpolate to Timestep
  18,                                     !- Hour 1
  0,                                      !- Minute 1